*SPEF "IEEE 1481.1999"
*DESIGN "dec_to_bin"
*DATE "15:53:10 Monday February 27, 2023"
*VENDOR "unknown"
*PROGRAM "qrouter"
*VERSION "unknown"
*DESIGN_FLOW "qflow"
*DIVIDER /
*DELIMITER :
*BUS_DELIMITER <>
*T_UNIT 1 PS
*C_UNIT 1 FF
*R_UNIT 1 OHM
*L_UNIT 1 HENRY

*NAME_MAP
*1 decimal[0]
*2 BUFX2_1
*3 octal[0]
*4 BUFX2_1
*5 decimal[1]
*6 BUFX2_2
*7 octal[1]
*8 BUFX2_2
*9 decimal[2]
*10 BUFX2_3
*11 octal[2]
*12 BUFX2_3
*13 decimal[3]
*14 BUFX2_4
*15 octal[3]
*16 BUFX2_4
*17 decimal[4]
*18 BUFX2_5
*19 octal[4]
*20 BUFX2_5
*21 decimal[5]
*22 BUFX2_6
*23 octal[5]
*24 BUFX2_6
*25 decimal[6]
*26 BUFX2_7
*27 octal[6]
*28 BUFX2_7
*29 decimal[7]
*30 BUFX2_8
*31 octal[7]
*32 BUFX2_8

*PORTS
*1 I
*3 O
*5 I
*7 O
*9 I
*11 O
*13 I
*15 O
*17 I
*19 O
*21 I
*23 O
*25 I
*27 O
*29 I
*31 O

*D_NET *1 0.00029856
*CONN
*P *1 O
*I *2:A I *L 0.0134147
*CAP
1 1_1 0.00029856
*RES
1 *1 1_1 3.17333
2 1_1 *2:A 0
*END
*D_NET *3 0.0001356
*CONN
*I *4:Y O *D BUFX2
*P *3 I
*CAP
1 3_1 0.0001356
*RES
1 *4:Y 3_1 2.1
2 3_1 *3 0
*END
*D_NET *5 0.00033888
*CONN
*P *5 O
*I *6:A I *L 0.0134147
*CAP
1 5_1 0.00033888
*RES
1 *5 5_1 3.94667
2 5_1 *6:A 0
*END
*D_NET *7 8.112e-05
*CONN
*I *8:Y O *D BUFX2
*P *7 I
*CAP
1 7_1 8.112e-05
*RES
1 *8:Y 7_1 1.58667
2 7_1 *7 0
*END
*D_NET *9 0.00017544
*CONN
*P *9 O
*I *10:A I *L 0.0134147
*CAP
1 9_1 0.00017544
*RES
1 *9 9_1 2.00667
2 9_1 *10:A 0
*END
*D_NET *11 0.00010848
*CONN
*I *12:Y O *D BUFX2
*P *11 I
*CAP
1 11_1 0.00010848
*RES
1 *12:Y 11_1 1.68
2 11_1 *11 0
*END
*D_NET *13 0.00018336
*CONN
*P *13 O
*I *14:A I *L 0.0134147
*CAP
1 13_1 0.00018336
*RES
1 *13 13_1 2.42667
2 13_1 *14:A 0
*END
*D_NET *15 0.00011424
*CONN
*I *16:Y O *D BUFX2
*P *15 I
*CAP
1 15_1 0.00011424
*RES
1 *16:Y 15_1 1.30667
2 15_1 *15 0
*END
*D_NET *17 0.00018192
*CONN
*P *17 O
*I *18:A I *L 0.0134147
*CAP
1 17_1 0.00018192
*RES
1 *17 17_1 2.52
2 17_1 *18:A 0
*END
*D_NET *19 2.016e-05
*CONN
*I *20:Y O *D BUFX2
*P *19 I
*CAP
1 19_1 2.016e-05
*RES
1 *20:Y 19_1 0.56
2 19_1 *19 0
*END
*D_NET *21 0.00018336
*CONN
*P *21 O
*I *22:A I *L 0.0134147
*CAP
1 21_1 0.00018336
*RES
1 *21 21_1 2.42667
2 21_1 *22:A 0
*END
*D_NET *23 0.0001344
*CONN
*I *24:Y O *D BUFX2
*P *23 I
*CAP
1 23_1 0.0001344
*RES
1 *24:Y 23_1 1.86667
2 23_1 *23 0
*END
*D_NET *25 0.00019008
*CONN
*P *25 O
*I *26:A I *L 0.0134147
*CAP
1 25_1 0.00019008
*RES
1 *25 25_1 2.61333
2 25_1 *26:A 0
*END
*D_NET *27 8.112e-05
*CONN
*I *28:Y O *D BUFX2
*P *27 I
*CAP
1 27_1 8.112e-05
*RES
1 *28:Y 27_1 1.58667
2 27_1 *27 0
*END
*D_NET *29 0.0002232
*CONN
*P *29 O
*I *30:A I *L 0.0134147
*CAP
1 29_1 0.0002232
*RES
1 *29 29_1 4.2
2 29_1 *30:A 0
*END
*D_NET *31 0.00019248
*CONN
*I *32:Y O *D BUFX2
*P *31 I
*CAP
1 31_1 0.00019248
*RES
1 *32:Y 31_1 2.89333
2 31_1 *31 0
*END
